OPT_V10/Two_days_first_run/powerflow_results_t43.txt
Pandapower Network Debug Info
==================================================

BUS:
       vm_pu  va_degree      p_mw    q_mvar
0   0.993097   0.110231  0.001062  0.001189
1   0.988961   0.201947  0.001362  0.001837
2   0.985194   0.302086  0.001637  0.003159
3   0.989356   0.151394  0.002934  0.003345
4   0.988434   0.231007  0.003366  0.005291
5   0.991959   0.205904  0.002944  0.006705
6   0.990358   0.212117  0.001073  0.000959
7   0.997372   0.031443  0.001855  0.002184
8   0.997661   0.042481  0.002291  0.003139
9   0.999824   0.000103  0.011336  0.008938
10  0.999830   0.000101  0.012401  0.008303
11  0.999848   0.000136  0.012797  0.010112
12  0.999778   0.002782  0.008087  0.006496
13  0.999751   0.003067  0.010510  0.010126
14  0.999760   0.003013  0.011209  0.014309
15  0.999928   0.000226  0.000000  0.000000
16  0.999928   0.000232  0.000000  0.000000
17  0.999783   0.002778  0.000000  0.000000
18  0.999783   0.002789  0.000000  0.000000
19  1.000000   0.000000 -0.043669 -0.041976
20  1.000000   0.000006  0.000000  0.000000
21  1.000000   0.000000 -0.041500 -0.054322
22  1.000000   0.000007  0.000000  0.000000
--------------------------------------------------

LINE:
    p_from_mw  q_from_mvar   p_to_mw  q_to_mvar         pl_mw       ql_mvar  i_from_ka   i_to_ka      i_ka  vm_from_pu  va_from_degree  vm_to_pu  va_to_degree  loading_percent
0    0.043659     0.037976 -0.043655  -0.037973  3.275012e-06  2.553580e-06   0.002227  0.002227  0.002227    1.000000        0.000006  0.999928      0.000226         0.968340
1    0.041490     0.050322 -0.041479  -0.050313  1.144197e-05  8.921496e-06   0.002510  0.002510  0.002510    1.000000        0.000007  0.999783      0.002778         1.091454
2    0.036537     0.027355 -0.036534  -0.027353  2.882183e-06  2.247285e-06   0.001757  0.001757  0.001757    0.999928        0.000226  0.999848      0.000136         0.763879
3    0.008087     0.006496 -0.008087  -0.006496  3.722448e-08  2.902454e-08   0.000399  0.000399  0.000399    0.999783        0.002778  0.999778      0.002782         0.173623
4    0.021720     0.024435 -0.021719  -0.024435  5.846839e-07  4.558877e-07   0.001259  0.001259  0.001259    0.999783        0.002778  0.999760      0.003013         0.547229
5    0.007108     0.009618 -0.007041  -0.009566  6.691007e-05  5.217089e-05   0.017264  0.017264  0.017264    0.999928        0.000232  0.993097      0.110231         7.505922
6    0.004078     0.007711 -0.004019  -0.007665  5.906164e-05  4.605133e-05   0.012594  0.012594  0.012594    0.999783        0.002789  0.991959      0.205904         5.475510
7    0.001860     0.002189 -0.001855  -0.002184  5.577538e-06  4.348898e-06   0.004147  0.004147  0.004147    0.999783        0.002789  0.997372      0.031443         1.803124
8    0.005724     0.008482 -0.005706  -0.008468  1.801094e-05  1.404343e-05   0.014773  0.014773  0.014773    0.999783        0.002789  0.997661      0.042481         6.422948
9    0.011336     0.008938 -0.011336  -0.008938  7.208839e-08  5.620851e-08   0.000556  0.000556  0.000556    0.999830        0.000101  0.999824      0.000103         0.241616
10   0.023738     0.017241 -0.023737  -0.017241  4.210832e-07  3.283255e-07   0.001129  0.001129  0.001129    0.999848        0.000136  0.999830      0.000101         0.491044
11   0.010510     0.010126 -0.010510  -0.010126  1.042229e-07  8.126428e-08   0.000562  0.000562  0.000562    0.999760        0.003013  0.999751      0.003067         0.244297
12  -0.003011    -0.005005  0.003031   0.005021  2.063387e-05  1.608857e-05   0.008524  0.008524  0.008524    0.988961        0.201947  0.993097      0.110231         3.706113
13  -0.002934    -0.003345  0.002948   0.003356  1.350741e-05  1.053195e-05   0.006492  0.006492  0.006492    0.989356        0.151394  0.993097      0.110231         2.822617
14  -0.001637    -0.003159  0.001649   0.003168  1.179790e-05  9.199017e-06   0.005213  0.005213  0.005213    0.985194        0.302086  0.988961      0.201947         2.266351
15   0.003415     0.005329 -0.003366  -0.005291  4.896932e-05  3.818219e-05   0.009157  0.009157  0.009157    0.997661        0.042481  0.988434      0.231007         3.981184
16  -0.001073    -0.000959  0.001075   0.000960  1.838525e-06  1.433528e-06   0.002097  0.002097  0.002097    0.990358        0.212117  0.991959      0.205904         0.911951
--------------------------------------------------

TRAFO:
    p_hv_mw  q_hv_mvar   p_lv_mw  q_lv_mvar    pl_mw  ql_mvar   i_hv_ka   i_lv_ka  vm_hv_pu  va_hv_degree  vm_lv_pu  va_lv_degree  loading_percent
0  0.007118   0.010618 -0.007108  -0.009618  0.00001    0.001  0.000492  0.017264  0.999928      0.000226  0.999928      0.000232         0.127841
1  0.011672   0.019382 -0.011662  -0.018382  0.00001    0.001  0.000871  0.031428  0.999783      0.002778  0.999783      0.002789         0.226299
2  0.043669   0.041976 -0.043659  -0.037976  0.00001    0.004  0.000500  0.002227  1.000000      0.000000  1.000000      0.000006         0.151429
3  0.041500   0.054322 -0.041490  -0.050322  0.00001    0.004  0.000564  0.002510  1.000000      0.000000  1.000000      0.000007         0.170901
--------------------------------------------------
